# MODFLOW2005 Basic Package
#    
free CONTHEADOUT
OPEN/CLOSE ../externalfiles/REF/UMD_IBOUND.ref        1  (FREE)          -1     IBOUND Layer   1  
OPEN/CLOSE ../externalfiles/REF/UMD_IBOUND.ref        1  (FREE)          -1     IBOUND Layer   2
OPEN/CLOSE ../externalfiles/REF/UMD_IBOUND.ref        1  (FREE)          -1     IBOUND Layer   3  
9.9900e+02
OPEN/CLOSE ../externalfiles/REF/UMD_IHEAD_NAVD.ref  1.0 (FREE)          -1     SHEAD  Layer   1  
OPEN/CLOSE ../externalfiles/REF/UMD_IHEAD_NAVD.ref  1.0 (FREE)          -1     SHEAD  Layer   2  
OPEN/CLOSE ../externalfiles/REF/UMD_IHEAD_NAVD.ref  1.0 (FREE)          -1     SHEAD  Layer   3  
